#n PM6 Opt Freq

test sugar 

0  1
C          -0.96680         1.11140        -0.53100
C           0.29210         0.78740        -1.36270
C           1.05070        -0.39770        -0.72840
O           1.65220         0.12080         0.47000
C           0.08400        -1.58780        -0.50050
O           0.77960        -2.68720         0.09910
C          -1.17450        -1.15600         0.27900
C          -0.94670        -0.91970         1.78750
O          -2.14920        -0.53980         2.47040
O          -1.80980        -0.04190        -0.37360
N          -0.09060         0.44670        -2.75080
C          -1.82130         2.20410        -1.17720
H          -1.90330        -1.96840         0.19380
H          -0.68900         1.48590         0.46070
H           0.94230         1.67310        -1.36280
H           1.85770        -0.71430        -1.40210
H          -0.24020        -1.90420        -1.50220
H          -0.51240        -1.80250         2.27040
H          -0.25630        -0.09160         1.95550
C           0.12210        -3.93810        -0.06400
C           2.71710        -0.67040         0.98400
C          -3.03800        -1.62210         2.70600
N           0.72170         0.76740        -3.63980
N           1.47640         1.04950        -4.44420
H           3.28100        -0.05380         1.68980
H           3.39740        -0.99390         0.19090
H           2.32960        -1.52890         1.53630
H           0.76490        -4.71670         0.35580
H          -0.82840        -3.95270         0.47560
H          -0.03850        -4.15580        -1.12400
H          -3.86090        -1.25790         3.32730
H          -3.45950        -1.99360         1.76860
H          -2.53180        -2.43100         3.24130
N          -3.05840         1.96000        -1.52620
C          -1.14290         3.54560        -1.39070
F          -0.32300         3.52910        -2.47840
F          -0.35000         3.87720        -0.33370
F          -2.00320         4.58180        -1.56630
H          -3.25620         0.97750        -1.26060

1 2 1.0 10 1.0 14 1.0 12 1.0 
2 3 1.0 15 1.0 11 1.0 
3 5 1.0 4 1.0 16 1.0 
4 21 1.0 
5 6 1.0 7 1.0 17 1.0 
6 20 1.0 
7 13 1.0 8 1.0 10 1.0 
8 19 1.0 18 1.0 9 1.0 
9 22 1.0 
10 
11 23 2.0 
12 35 1.0 34 2.0 
13 
14 
15 
16 
17 
18 
19 
20 28 1.0 29 1.0 30 1.0 
21 25 1.0 26 1.0 27 1.0 
22 31 1.0 32 1.0 33 1.0 
23 24 2.0 
24 
25 
26 
27 
28 
29 
30 
31 
32 
33 
34 39 1.0 
35 36 1.0 37 1.0 38 1.0 
36 
37 
38 
39 
