#n PM6 Opt Freq

test sugar 

0  1
C          -0.74670         0.91160        -0.35600
C           0.56760         0.40100        -0.98810
C           0.80150        -1.10280        -0.66090
O           2.19190        -1.44550        -0.55140
C           0.07710        -1.47440         0.65280
O           0.49000        -0.65400         1.76300
C          -1.44440        -1.26220         0.41710
C          -2.23860        -1.13380         1.73050
O          -3.65370        -1.13500         1.50400
O          -1.72870        -0.12930        -0.44360
N           0.58730         0.61790        -2.46420
C          -1.29660         2.17250        -1.02140
H          -1.81910        -2.12200        -0.14870
H          -0.60630         1.17970         0.69730
H           1.39880         0.99600        -0.59050
H           0.38090        -1.74760        -1.44340
H           0.25470        -2.52270         0.92300
H          -1.97270        -1.92570         2.44040
H          -2.01930        -0.17070         2.20310
C           1.77800        -0.96700         2.28030
C           2.91420        -1.35140        -1.77270
C          -4.20370        -2.43770         1.37080
N          -0.26300         0.02760        -3.16160
N          -1.02430        -0.53360        -3.79560
H           3.89930        -1.80050        -1.61830
H           3.06250        -0.30580        -2.05410
H           2.40630        -1.89810        -2.57260
H           1.85180        -0.53110         3.28070
H           2.55830        -0.51230         1.66600
H           1.92720        -2.04750         2.36350
H          -3.79110        -2.95290         0.49970
H          -4.02250        -3.02460         2.27630
H          -5.28390        -2.34010         1.23260
N          -2.46870         2.15210        -1.60070
C          -0.40330         3.40280        -0.97920
F           0.33180         3.55190        -2.11290
F          -1.09390         4.56090        -0.80470
F           0.49190         3.33930         0.04690
H          -2.87200         1.20660        -1.46470

1 2 1.0 10 1.0 14 1.0 12 1.0 
2 3 1.0 15 1.0 11 1.0 
3 5 1.0 4 1.0 16 1.0 
4 21 1.0 
5 6 1.0 7 1.0 17 1.0 
6 20 1.0 
7 13 1.0 8 1.0 10 1.0 
8 19 1.0 18 1.0 9 1.0 
9 22 1.0 
10 
11 23 2.0 
12 35 1.0 34 2.0 
13 
14 
15 
16 
17 
18 
19 
20 28 1.0 29 1.0 30 1.0 
21 25 1.0 26 1.0 27 1.0 
22 31 1.0 32 1.0 33 1.0 
23 24 2.0 
24 
25 
26 
27 
28 
29 
30 
31 
32 
33 
34 39 1.0 
35 36 1.0 37 1.0 38 1.0 
36 
37 
38 
39 
