#n PM6 Opt Freq

test sugar 

0  1
C          -0.73820         0.91230        -0.36290
C           0.57120         0.38830        -0.99410
C           0.79500        -1.11500        -0.65790
O           2.18310        -1.46690        -0.54870
C           0.07030        -1.47310         0.65940
O           0.49110        -0.64870         1.76380
C          -1.45000        -1.25160         0.42520
C          -2.24090        -1.10930         1.73900
O          -3.65640        -1.10090         1.51520
O          -1.72780        -0.12210        -0.44220
N           0.58970         0.59570        -2.47160
C          -1.28030         2.17290        -1.03530
H          -1.83170        -2.11220        -0.13460
H          -0.59400         1.18610         0.68840
H           1.40740         0.97990        -0.60180
H           0.36840        -1.76170        -1.43550
H           0.24100        -2.52090         0.93590
H          -2.01340        -0.14510         2.20560
H          -1.97980        -1.89900         2.45320
C           1.77790        -0.96760         2.28060
C           2.90390        -1.38560        -1.77180
C          -4.21650        -2.40000         1.38900
N          -0.26610         0.00710        -3.16370
N          -1.03260        -0.55270        -3.79270
H           3.05920        -0.34290        -2.05990
H           2.39050        -1.93360        -2.56740
H           3.88590        -1.84100        -1.61640
H           2.56020        -0.52210         1.66210
H           1.91970        -2.04860         2.37010
H           1.85650        -0.52610         3.27820
H          -4.03690        -2.98470         2.29620
H          -3.81050        -2.92180         0.51870
H          -5.29640        -2.29490         1.25360
N          -2.45360         2.15720        -1.61230
C          -0.37820         3.39700        -1.00260
F          -1.06020         4.56100        -0.83380
F           0.35540         3.53380        -2.13880
F           0.51880         3.33340         0.02190
H          -2.86350         1.21550        -1.46950

1 2 1.0 10 1.0 14 1.0 12 1.0 
2 3 1.0 15 1.0 11 1.0 
3 5 1.0 4 1.0 16 1.0 
4 21 1.0 
5 6 1.0 7 1.0 17 1.0 
6 20 1.0 
7 13 1.0 8 1.0 10 1.0 
8 19 1.0 18 1.0 9 1.0 
9 22 1.0 
10 
11 23 2.0 
12 35 1.0 34 2.0 
13 
14 
15 
16 
17 
18 
19 
20 28 1.0 29 1.0 30 1.0 
21 25 1.0 26 1.0 27 1.0 
22 31 1.0 32 1.0 33 1.0 
23 24 2.0 
24 
25 
26 
27 
28 
29 
30 
31 
32 
33 
34 39 1.0 
35 36 1.0 37 1.0 38 1.0 
36 
37 
38 
39 
