#n PM6 Opt Freq

test sugar 

0  1
C          -0.95020         1.25300        -0.00970
C           0.54010         0.93660        -0.23750
C           0.69980        -0.48270        -0.80910
O           2.08750        -0.74390        -1.06550
C           0.09840        -1.48720         0.20170
O           0.71950        -1.43620         1.49920
C          -1.38680        -1.12050         0.39040
C          -2.06200        -2.04080         1.42210
O          -3.48920        -1.96940         1.29470
O          -1.54710         0.24980         0.83800
N           1.16710         1.94570        -1.10670
C          -1.87820         1.49170        -1.22210
H          -1.90950        -1.23510        -0.56650
H          -1.00470         2.19240         0.55630
H           1.03920         0.97250         0.74220
H           0.15670        -0.54120        -1.76220
H           0.17330        -2.51260        -0.17870
H          -1.79220        -3.08200         1.21570
H          -1.75420        -1.80520         2.44780
C           2.01150        -2.02360         1.56570
C           2.29790        -1.73690        -2.06210
C          -4.08420        -1.08020         2.23150
N           2.38740         2.14070        -0.93450
N           3.49770         2.33850        -0.77270
H           1.88310        -1.40910        -3.02000
H           3.37550        -1.87790        -2.18100
H           1.85400        -2.69070        -1.76490
H           2.23840        -2.21710         2.61800
H           2.76830        -1.33230         1.18910
H           2.04920        -2.97390         1.02530
H          -3.89040        -1.41810         3.25410
H          -5.16500        -1.08440         2.06590
H          -3.71960        -0.05920         2.09640
N          -3.09090         0.99820        -1.21580
C          -1.38320         2.36180        -2.37250
F          -2.38520         2.74490        -3.21370
F          -0.80600         3.51450        -1.94020
F          -0.47780         1.71080        -3.15200
H          -3.25010         0.50050        -0.32390

1 2 1.0 10 1.0 14 1.0 12 1.0 
2 3 1.0 15 1.0 11 1.0 
3 5 1.0 4 1.0 16 1.0 
4 21 1.0 
5 6 1.0 7 1.0 17 1.0 
6 20 1.0 
7 13 1.0 8 1.0 10 1.0 
8 19 1.0 18 1.0 9 1.0 
9 22 1.0 
10 
11 23 2.0 
12 35 1.0 34 2.0 
13 
14 
15 
16 
17 
18 
19 
20 28 1.0 29 1.0 30 1.0 
21 25 1.0 26 1.0 27 1.0 
22 31 1.0 32 1.0 33 1.0 
23 24 2.0 
24 
25 
26 
27 
28 
29 
30 
31 
32 
33 
34 39 1.0 
35 36 1.0 37 1.0 38 1.0 
36 
37 
38 
39 
