#n PM6 Opt Freq

test sugar 

0  1
C          -0.80610         1.16390        -0.58640
C           0.60860         0.78490        -1.07520
C           0.85910        -0.74610        -0.96490
O           2.26400        -0.95620        -0.75790
C          -0.01590        -1.33570         0.16120
O           0.22380        -0.64140         1.40140
C          -1.49480        -1.12440        -0.26930
C          -2.49120        -1.29110         0.88390
O          -2.37200        -2.60300         1.43530
O          -1.73330         0.12960        -0.95030
N           0.86360         1.25750        -2.46650
C          -1.30840         2.49250        -1.14940
H          -1.72100        -1.89610        -1.01670
H          -0.83400         1.28340         0.50290
H           1.33860         1.31900        -0.45370
H           0.58230        -1.24240        -1.90360
H           0.16610        -2.40650         0.30730
H          -3.51080        -1.14390         0.50680
H          -2.32180        -0.53310         1.65800
C           1.23170        -1.24570         2.20250
C           2.70210        -2.25820        -1.12440
C          -3.25540        -2.78680         2.53450
N           0.20630         0.74710        -3.39440
N          -0.39180         0.26350        -4.23440
H           2.52120        -2.43770        -2.18850
H           3.77820        -2.32010        -0.94120
H           2.20540        -3.02350        -0.52240
H           0.96630        -2.28070         2.43820
H           1.29880        -0.68660         3.13980
H           2.20640        -1.20600         1.71280
H          -3.12870        -3.80540         2.91090
H          -3.01600        -2.08480         3.33900
H          -4.29450        -2.65760         2.21690
N          -2.36490         2.52070        -1.92040
C          -0.51210         3.73330        -0.77270
F           0.34590         4.12260        -1.75160
F          -1.30400         4.80470        -0.49710
F           0.24400         3.53030         0.34240
H          -2.71730         1.55150        -2.01000

1 2 1.0 10 1.0 14 1.0 12 1.0 
2 3 1.0 15 1.0 11 1.0 
3 5 1.0 4 1.0 16 1.0 
4 21 1.0 
5 6 1.0 7 1.0 17 1.0 
6 20 1.0 
7 13 1.0 8 1.0 10 1.0 
8 19 1.0 18 1.0 9 1.0 
9 22 1.0 
10 
11 23 2.0 
12 35 1.0 34 2.0 
13 
14 
15 
16 
17 
18 
19 
20 28 1.0 29 1.0 30 1.0 
21 25 1.0 26 1.0 27 1.0 
22 31 1.0 32 1.0 33 1.0 
23 24 2.0 
24 
25 
26 
27 
28 
29 
30 
31 
32 
33 
34 39 1.0 
35 36 1.0 37 1.0 38 1.0 
36 
37 
38 
39 
