#n PM6 Opt Freq

test sugar 

0  1
C          -1.02900         1.04710        -0.58400
C           0.38340         0.88950        -1.18400
C           1.06230        -0.36790        -0.60250
O           1.36860        -0.05070         0.76760
C           0.13730        -1.59810        -0.77670
O           0.77310        -2.76970        -0.25050
C          -1.26340        -1.33260        -0.19140
C          -1.32900        -1.34960         1.34800
O          -2.70600        -1.34940         1.75070
O          -1.82420        -0.13500        -0.76440
N           0.30050         0.77690        -2.65660
C          -1.80230         2.20630        -1.21690
H          -1.93080        -2.13260        -0.53350
H          -0.96820         1.27130         0.48680
H           0.97320         1.77580        -0.91200
H           2.00750        -0.54830        -1.13100
H           0.02420        -1.74070        -1.86070
H          -0.85210        -2.25390         1.74120
H          -0.84940        -0.47290         1.78920
C           0.19610        -3.98680        -0.70940
C           2.37450        -0.87410         1.34680
C          -2.84000        -1.34930         3.16570
N           1.26340         1.23840        -3.29920
N           2.15470         1.64900        -3.87630
H           3.23250        -0.98970         0.67820
H           2.71760        -0.38670         2.26390
H           1.96700        -1.84780         1.62570
H          -0.82000        -4.10640        -0.32480
H           0.19720        -4.02860        -1.80270
H           0.80310        -4.81370        -0.33080
H          -3.90540        -1.35660         3.41070
H          -2.38930        -0.44840         3.59290
H          -2.37630        -2.24290         3.59440
N          -2.94080         1.99220        -1.82430
C          -1.16580         3.57950        -1.09680
F          -0.14920         3.74710        -1.98750
F          -2.02780         4.61120        -1.28910
F          -0.61340         3.76390         0.13530
H          -3.13560         0.97580        -1.74890

1 2 1.0 10 1.0 14 1.0 12 1.0 
2 3 1.0 15 1.0 11 1.0 
3 5 1.0 4 1.0 16 1.0 
4 21 1.0 
5 6 1.0 7 1.0 17 1.0 
6 20 1.0 
7 13 1.0 8 1.0 10 1.0 
8 19 1.0 18 1.0 9 1.0 
9 22 1.0 
10 
11 23 2.0 
12 35 1.0 34 2.0 
13 
14 
15 
16 
17 
18 
19 
20 28 1.0 29 1.0 30 1.0 
21 25 1.0 26 1.0 27 1.0 
22 31 1.0 32 1.0 33 1.0 
23 24 2.0 
24 
25 
26 
27 
28 
29 
30 
31 
32 
33 
34 39 1.0 
35 36 1.0 37 1.0 38 1.0 
36 
37 
38 
39 
