#n PM6 Opt Freq

test sugar 

0  1
C          -0.69030         1.70240        -0.19240
C           0.68380         1.10190        -0.54130
C           0.57780        -0.42170        -0.74120
O           1.87670        -0.94170        -1.06680
C           0.01960        -1.05160         0.55490
O           0.89280        -0.77170         1.66530
C          -1.34840        -0.40120         0.84380
C          -1.97770        -0.94700         2.13560
O          -2.24550        -2.34830         2.03970
O          -1.25450         1.03760         0.96280
N           1.25710         1.76660        -1.72440
C          -1.79880         1.78830        -1.26480
H          -2.01800        -0.64000         0.00970
H          -0.52880         2.74520         0.11120
H           1.35180         1.29170         0.31180
H          -0.10120        -0.62490        -1.57980
H          -0.10110        -2.13490         0.43690
H          -1.29750        -0.79550         2.98120
H          -2.89010        -0.39180         2.38860
C           1.76680        -1.84780         1.97910
C           1.82540        -2.16910        -1.78340
C          -3.53280        -2.62680         1.50240
N           2.50300         1.79890        -1.78880
N           3.63930         1.85300        -1.85300
H           1.31870        -2.02890        -2.74300
H           1.32070        -2.94370        -1.20000
H           2.85100        -2.49420        -1.97740
H           2.43210        -2.07610         1.14380
H           1.19190        -2.73620         2.25780
H           2.37870        -1.55080         2.83510
H          -3.65380        -3.71210         1.44980
H          -3.63310        -2.21710         0.49360
H          -4.31340        -2.22180         2.15350
N          -3.04640         1.61610        -0.90050
C          -1.42880         2.14210        -2.70060
F          -0.66340         3.26210        -2.78010
F          -2.52090         2.38470        -3.47990
F          -0.75710         1.13300        -3.31800
H          -3.06730         1.46280         0.12140

1 2 1.0 10 1.0 14 1.0 12 1.0 
2 3 1.0 15 1.0 11 1.0 
3 5 1.0 4 1.0 16 1.0 
4 21 1.0 
5 6 1.0 7 1.0 17 1.0 
6 20 1.0 
7 13 1.0 8 1.0 10 1.0 
8 19 1.0 18 1.0 9 1.0 
9 22 1.0 
10 
11 23 2.0 
12 35 1.0 34 2.0 
13 
14 
15 
16 
17 
18 
19 
20 28 1.0 29 1.0 30 1.0 
21 25 1.0 26 1.0 27 1.0 
22 31 1.0 32 1.0 33 1.0 
23 24 2.0 
24 
25 
26 
27 
28 
29 
30 
31 
32 
33 
34 39 1.0 
35 36 1.0 37 1.0 38 1.0 
36 
37 
38 
39 
