#n PM6 Opt Freq

test sugar 

0  1
C          -1.21340         0.99560        -0.63640
C           0.28700         0.84180        -0.96010
C           0.82770        -0.47590        -0.36650
O           0.94950        -0.24440         1.04150
C          -0.07970        -1.65350        -0.80380
O           0.29630        -2.92610        -0.26150
C          -1.58090        -1.39410        -0.57160
C          -2.13960        -1.66890         0.83830
O          -1.67260        -0.74210         1.81240
O          -1.98980        -0.12280        -1.10220
N           0.49380         0.84710        -2.42680
C          -1.81310         2.24350        -1.28800
H          -2.10060        -2.13110        -1.19990
H          -1.36430         1.12030         0.43920
H           0.82490         1.68660        -0.50780
H           1.84260        -0.64440        -0.74790
H           0.02450        -1.72220        -1.89730
H          -1.88510        -2.68860         1.14930
H          -3.23250        -1.58330         0.79730
C           1.38760        -3.53120        -0.94460
C           1.61760        -1.26210         1.76900
C          -2.15860        -1.04700         3.11200
N           1.55030         1.37030        -2.83010
N           2.52590         1.83290        -3.19130
H           1.88200        -0.85580         2.74950
H           0.95880        -2.11670         1.93640
H           2.53870        -1.57180         1.26730
H           1.61160        -4.48200        -0.45360
H           2.27960        -2.90120        -0.90110
H           1.12000        -3.73440        -1.98590
H          -1.77370        -0.29650         3.80760
H          -1.80520        -2.03210         3.43140
H          -3.25210        -1.01350         3.13070
N          -2.78300         2.13620        -2.16050
C          -1.20730         3.57330        -0.87470
F          -1.99420         4.64740        -1.14610
F          -0.01470         3.79860        -1.49350
F          -0.94800         3.61500         0.46150
H          -2.99200         1.12470        -2.24960

1 2 1.0 10 1.0 14 1.0 12 1.0 
2 3 1.0 15 1.0 11 1.0 
3 5 1.0 4 1.0 16 1.0 
4 21 1.0 
5 6 1.0 7 1.0 17 1.0 
6 20 1.0 
7 13 1.0 8 1.0 10 1.0 
8 19 1.0 18 1.0 9 1.0 
9 22 1.0 
10 
11 23 2.0 
12 35 1.0 34 2.0 
13 
14 
15 
16 
17 
18 
19 
20 28 1.0 29 1.0 30 1.0 
21 25 1.0 26 1.0 27 1.0 
22 31 1.0 32 1.0 33 1.0 
23 24 2.0 
24 
25 
26 
27 
28 
29 
30 
31 
32 
33 
34 39 1.0 
35 36 1.0 37 1.0 38 1.0 
36 
37 
38 
39 
