#n PM6 Opt Freq

test sugar 

0  1
C          -1.02310         1.21350        -0.73350
C           0.40710         0.92230        -1.22930
C           0.94760        -0.34140        -0.53190
O           1.19580         0.04880         0.83120
C          -0.05300        -1.51280        -0.70410
O           0.48390        -2.69560        -0.10590
C          -1.47690        -1.11500        -0.24690
C          -1.72210        -1.02140         1.27070
O          -1.67570        -2.31140         1.87730
O          -1.89950         0.08820        -0.91990
N           0.40620         0.73180        -2.69580
C          -1.65670         2.39980        -1.46380
H          -2.15580        -1.89600        -0.61060
H          -1.01560         1.47530         0.33120
H           1.04370         1.77880        -0.96750
H           1.91050        -0.62060        -0.97960
H          -0.10530        -1.69760        -1.78670
H          -1.00730        -0.35360         1.75760
H          -2.71730        -0.59040         1.43950
C          -0.15360        -3.89380        -0.52910
C           1.98850        -0.87630         1.56780
C          -1.84430        -2.23750         3.28640
N           1.44750         1.06460        -3.29420
N           2.40710         1.35990        -3.83090
H           2.37420        -0.35700         2.44980
H           2.83880        -1.23540         0.98070
H           1.37870        -1.71080         1.92040
H           0.36030        -4.73610        -0.05800
H          -0.07680        -4.00620        -1.61470
H          -1.20170        -3.91910        -0.22210
H          -1.03400        -1.65740         3.73850
H          -1.81350        -3.25290         3.69030
H          -2.81220        -1.79120         3.53410
N          -2.75620         2.24280        -2.15450
C          -0.93330         3.72920        -1.33520
F          -1.69990         4.80910        -1.63530
F          -0.47640         3.92200        -0.06610
F           0.16340         3.78980        -2.13960
H          -3.02490         1.24470        -2.07730

1 2 1.0 10 1.0 14 1.0 12 1.0 
2 3 1.0 15 1.0 11 1.0 
3 5 1.0 4 1.0 16 1.0 
4 21 1.0 
5 6 1.0 7 1.0 17 1.0 
6 20 1.0 
7 13 1.0 8 1.0 10 1.0 
8 19 1.0 18 1.0 9 1.0 
9 22 1.0 
10 
11 23 2.0 
12 35 1.0 34 2.0 
13 
14 
15 
16 
17 
18 
19 
20 28 1.0 29 1.0 30 1.0 
21 25 1.0 26 1.0 27 1.0 
22 31 1.0 32 1.0 33 1.0 
23 24 2.0 
24 
25 
26 
27 
28 
29 
30 
31 
32 
33 
34 39 1.0 
35 36 1.0 37 1.0 38 1.0 
36 
37 
38 
39 
