#n PM6 Opt Freq

test sugar 

0  1
C          -1.07560         1.05850        -0.59460
C           0.38310         0.87420        -1.05840
C           0.95740        -0.43800        -0.48820
O           1.22230        -0.17900         0.89630
C           0.00080        -1.61430        -0.80680
O           0.49950        -2.84660        -0.26960
C          -1.47110        -1.32500        -0.44580
C          -1.89820        -1.56090         1.01640
O          -1.32680        -0.62360         1.92040
O          -1.90850        -0.05680        -0.96120
N           0.44360         0.84540        -2.53810
C          -1.71830         2.30300        -1.21090
H          -2.06550        -2.05510        -1.01050
H          -1.12040         1.20620         0.48770
H           0.97470         1.71980        -0.68100
H           1.92670        -0.64220        -0.96260
H           0.03440        -1.70520        -1.90280
H          -2.98860        -1.45780         1.07720
H          -1.63000        -2.57810         1.32380
C           0.01690        -4.00360        -0.94080
C           1.95890        -1.19260         1.56400
C          -1.68540        -0.89410         3.26800
N           1.47440         1.31940        -3.05350
N           2.42430         1.74040        -3.51920
H           1.30120        -2.01170         1.86350
H           2.78580        -1.56130         0.95000
H           2.37590        -0.75800         2.47710
H          -1.06460        -4.10480        -0.81890
H           0.49490        -4.87960        -0.49390
H           0.27810        -3.97120        -2.00270
H          -1.31440        -1.87740         3.57260
H          -1.22450        -0.13490         3.90550
H          -2.77130        -0.84460         3.39360
N          -2.77320         2.19430        -1.97850
C          -1.05450         3.63070        -0.88960
F          -1.84950         4.71160        -1.10510
F           0.07320         3.82380        -1.62880
F          -0.66330         3.69570         0.41300
H          -3.00410         1.18500        -2.02490

1 2 1.0 10 1.0 14 1.0 12 1.0 
2 3 1.0 15 1.0 11 1.0 
3 5 1.0 4 1.0 16 1.0 
4 21 1.0 
5 6 1.0 7 1.0 17 1.0 
6 20 1.0 
7 13 1.0 8 1.0 10 1.0 
8 19 1.0 18 1.0 9 1.0 
9 22 1.0 
10 
11 23 2.0 
12 35 1.0 34 2.0 
13 
14 
15 
16 
17 
18 
19 
20 28 1.0 29 1.0 30 1.0 
21 25 1.0 26 1.0 27 1.0 
22 31 1.0 32 1.0 33 1.0 
23 24 2.0 
24 
25 
26 
27 
28 
29 
30 
31 
32 
33 
34 39 1.0 
35 36 1.0 37 1.0 38 1.0 
36 
37 
38 
39 
