#n PM6 Opt Freq

test sugar 

0  1
C          -0.85760         1.13470        -0.53130
C           0.46850         0.86530        -1.26280
C           1.19260        -0.35530        -0.65410
O           1.70440         0.08060         0.61980
C           0.23910        -1.56750        -0.49340
O           0.90520        -2.63540         0.19160
C          -1.09640        -1.16130         0.16660
C          -1.01880        -0.95590         1.69570
O          -2.26950        -0.53070         2.25360
O          -1.68020        -0.04060        -0.52790
N           0.34500         0.74190        -2.73810
C          -1.65510         2.27340        -1.16790
H          -1.80290        -1.98060        -0.00380
H          -0.67050         1.44110         0.50380
H           1.11010         1.74220        -1.10410
H           2.03480        -0.64030        -1.29880
H           0.01750        -1.91320        -1.51050
H          -0.67820        -1.86500         2.20450
H          -0.31030        -0.16660         1.95240
C           0.30730        -3.90960        -0.01390
C           2.99160        -0.44770         0.91940
C          -3.23320        -1.56930         2.35090
N          -0.55110         0.02990        -3.22920
N          -1.35260        -0.63990        -3.68300
H           3.72480        -0.09160         0.18930
H           3.28580        -0.08500         1.90800
H           2.98370        -1.53960         0.94090
H           0.27280        -4.15250        -1.08010
H           0.92200        -4.65900         0.49220
H          -0.69710        -3.94410         0.41590
H          -2.83110        -2.42190         2.90640
H          -4.09960        -1.18040         2.89290
H          -3.56730        -1.88610         1.35970
N          -2.83290         2.04150        -1.68700
C          -0.98750         3.63970        -1.17930
F          -0.11470         3.77150        -2.21410
F          -0.26130         3.85000        -0.04630
F          -1.86200         4.67550        -1.27110
H          -3.05670         1.04310        -1.52410

1 2 1.0 10 1.0 14 1.0 12 1.0 
2 3 1.0 15 1.0 11 1.0 
3 5 1.0 4 1.0 16 1.0 
4 21 1.0 
5 6 1.0 7 1.0 17 1.0 
6 20 1.0 
7 13 1.0 8 1.0 10 1.0 
8 19 1.0 18 1.0 9 1.0 
9 22 1.0 
10 
11 23 2.0 
12 35 1.0 34 2.0 
13 
14 
15 
16 
17 
18 
19 
20 28 1.0 29 1.0 30 1.0 
21 25 1.0 26 1.0 27 1.0 
22 31 1.0 32 1.0 33 1.0 
23 24 2.0 
24 
25 
26 
27 
28 
29 
30 
31 
32 
33 
34 39 1.0 
35 36 1.0 37 1.0 38 1.0 
36 
37 
38 
39 
