#n PM6 Opt Freq

test sugar 

0  1
C          -0.84030         1.00890        -0.53870
C           0.37960         0.34790        -1.23230
C           0.52640        -1.13690        -0.79000
O           1.90330        -1.53400        -0.66360
C          -0.17230        -1.37220         0.56400
O           0.39590        -0.48960         1.55320
C          -1.67700        -1.05650         0.37620
C          -2.43080        -0.88710         1.70400
O          -2.33120        -2.04490         2.53500
O          -1.93400         0.08040        -0.47500
N           0.15970         0.34280        -2.70340
C          -1.33710         2.26460        -1.25420
H          -2.11590        -1.90590        -0.16060
H          -0.59590         1.33230         0.47920
H           1.28930         0.91200        -0.98860
H           0.05030        -1.80500        -1.52160
H          -0.05450        -2.41410         0.88880
H          -3.48190        -0.62800         1.52310
H          -2.01590        -0.04110         2.26340
C           1.29840        -1.15550         2.42960
C           2.57020        -1.74360        -1.89890
C          -3.31210        -3.02900         2.23420
N           0.99350         0.94560        -3.40500
N           1.76030         1.48750        -4.04900
H           3.51450        -2.25480        -1.69130
H           2.80600        -0.78880        -2.37160
H           1.97790        -2.37180        -2.57060
H           1.70200        -0.41730         3.12780
H           0.77110        -1.92300         3.00440
H           2.12950        -1.60190         1.87800
H          -3.19910        -3.39420         1.20990
H          -4.31810        -2.62480         2.38240
H          -3.17280        -3.87050         2.91820
N          -2.45590         2.24710        -1.93120
C          -0.46220         3.49740        -1.10570
F          -0.35040         3.87410         0.19740
F           0.80790         3.26550        -1.53790
F          -0.90990         4.58240        -1.78850
H          -2.85030         1.29340        -1.84830

1 2 1.0 10 1.0 14 1.0 12 1.0 
2 3 1.0 15 1.0 11 1.0 
3 5 1.0 4 1.0 16 1.0 
4 21 1.0 
5 6 1.0 7 1.0 17 1.0 
6 20 1.0 
7 13 1.0 8 1.0 10 1.0 
8 19 1.0 18 1.0 9 1.0 
9 22 1.0 
10 
11 23 2.0 
12 35 1.0 34 2.0 
13 
14 
15 
16 
17 
18 
19 
20 28 1.0 29 1.0 30 1.0 
21 25 1.0 26 1.0 27 1.0 
22 31 1.0 32 1.0 33 1.0 
23 24 2.0 
24 
25 
26 
27 
28 
29 
30 
31 
32 
33 
34 39 1.0 
35 36 1.0 37 1.0 38 1.0 
36 
37 
38 
39 
