#n PM6 Opt Freq

test sugar 

0  1
C          -0.95290         1.00470        -0.40370
C           0.37190         0.61130        -1.09580
C           0.65010        -0.90140        -0.90290
O           2.06340        -1.11820        -1.03740
C           0.09350        -1.36750         0.45810
O           0.58740        -0.57050         1.55160
C          -1.45160        -1.21940         0.38720
C          -2.11090        -1.12840         1.77640
O          -3.54060        -1.18730         1.70130
O          -1.86570        -0.10380        -0.43900
N           0.28230         0.87090        -2.55480
C          -1.64030         2.21500        -1.03590
H          -1.84520        -2.09470        -0.14070
H          -0.77640         1.27610         0.64390
H           1.18430         1.22190        -0.67850
H           0.14400        -1.46210        -1.70240
H           0.33690        -2.41480         0.66910
H          -1.88250        -0.15980         2.23310
H          -1.74070        -1.91180         2.44800
C           1.93870        -0.83350         1.91000
C           2.39670        -2.44900        -1.41240
C          -4.04930        -2.50900         1.59940
N           1.36890         1.00870        -3.15170
N           2.35730         1.13300        -3.70420
H           1.96490        -2.69020        -2.38840
H           3.48510        -2.51940        -1.48850
H           2.05540        -3.16530        -0.66070
H           2.62370        -0.34230         1.21580
H           2.13820        -1.90800         1.95730
H           2.11170        -0.40670         2.90200
H          -3.74240        -3.10610         2.46350
H          -3.71950        -2.98860         0.67440
H          -5.14140        -2.45480         1.58730
N          -2.80950         2.08940        -1.60920
C          -0.89580         3.53490        -0.92020
F           0.28460         3.53020        -1.59900
F          -1.59540         4.60970        -1.37000
F          -0.57170         3.80270         0.37680
H          -3.08890         1.09570        -1.51680

1 2 1.0 10 1.0 14 1.0 12 1.0 
2 3 1.0 15 1.0 11 1.0 
3 5 1.0 4 1.0 16 1.0 
4 21 1.0 
5 6 1.0 7 1.0 17 1.0 
6 20 1.0 
7 13 1.0 8 1.0 10 1.0 
8 19 1.0 18 1.0 9 1.0 
9 22 1.0 
10 
11 23 2.0 
12 35 1.0 34 2.0 
13 
14 
15 
16 
17 
18 
19 
20 28 1.0 29 1.0 30 1.0 
21 25 1.0 26 1.0 27 1.0 
22 31 1.0 32 1.0 33 1.0 
23 24 2.0 
24 
25 
26 
27 
28 
29 
30 
31 
32 
33 
34 39 1.0 
35 36 1.0 37 1.0 38 1.0 
36 
37 
38 
39 
