#n PM6 Opt Freq

test sugar 

0  1
C          -0.97560         1.17200        -0.52840
C           0.33410         0.69570        -1.19790
C           0.55730        -0.82020        -0.95760
O           1.97160        -1.06700        -1.01530
C          -0.07230        -1.23480         0.38560
O           0.43870        -0.39360         1.43770
C          -1.60370        -1.02500         0.24390
C          -2.34120        -0.98290         1.59030
O          -2.14910        -2.18390         2.34050
O          -1.96140         0.12580        -0.55210
N           0.26240         0.91570        -2.66510
C          -1.58100         2.40940        -1.19180
H          -1.98680        -1.87920        -0.32720
H          -0.80180         1.45310         0.51710
H           1.16820         1.28670        -0.79500
H           0.07750        -1.38870        -1.76730
H           0.12500        -2.28500         0.62970
H          -3.40990        -0.78160         1.44160
H          -1.97000        -0.14920         2.19660
C           1.51590        -0.98460         2.15410
C           2.29630        -2.41980        -1.30940
C          -3.10410        -3.18930         2.02630
N           1.35790         0.98550        -3.25800
N           2.35250         1.04780        -3.80990
H           3.38550        -2.50950        -1.34220
H           1.89580        -2.70530        -2.28680
H           1.91780        -3.09180        -0.53510
H           1.19010        -1.91150         2.63580
H           2.36820        -1.17850         1.49920
H           1.83160        -0.28420         2.93200
H          -3.04110        -3.47320         0.97230
H          -4.11470        -2.84430         2.26480
H          -2.88600        -4.07040         2.63590
N          -2.74140         2.33780        -1.79270
C          -0.77090         3.69020        -1.07200
F           0.43360         3.60600        -1.70040
F          -1.39360         4.78830        -1.57550
F          -0.48980         3.97200         0.23140
H          -3.06730         1.35890        -1.71230

1 2 1.0 10 1.0 14 1.0 12 1.0 
2 3 1.0 15 1.0 11 1.0 
3 5 1.0 4 1.0 16 1.0 
4 21 1.0 
5 6 1.0 7 1.0 17 1.0 
6 20 1.0 
7 13 1.0 8 1.0 10 1.0 
8 19 1.0 18 1.0 9 1.0 
9 22 1.0 
10 
11 23 2.0 
12 35 1.0 34 2.0 
13 
14 
15 
16 
17 
18 
19 
20 28 1.0 29 1.0 30 1.0 
21 25 1.0 26 1.0 27 1.0 
22 31 1.0 32 1.0 33 1.0 
23 24 2.0 
24 
25 
26 
27 
28 
29 
30 
31 
32 
33 
34 39 1.0 
35 36 1.0 37 1.0 38 1.0 
36 
37 
38 
39 
