#n PM6 Opt Freq

test sugar 

0  1
C          -0.73340         1.69660        -0.16840
C           0.65160         1.12900        -0.52930
C           0.57680        -0.39410        -0.74560
O           1.88500        -0.88320        -1.08200
C           0.03700        -1.04990         0.54540
O           0.90860        -0.76410         1.65570
C          -1.34310        -0.43160         0.84670
C          -1.95580        -1.00490         2.13460
O          -2.19430        -2.41030         2.02410
O          -1.27880         1.00740         0.98140
N           1.20610         1.81860        -1.70700
C          -1.84770         1.77110        -1.23560
H          -2.01090        -0.67520         0.01240
H          -0.59250         2.73920         0.14610
H           1.31890         1.32340         0.32340
H          -0.10120        -0.60230        -1.58390
H          -0.06140        -2.13420         0.41590
H          -1.27570        -0.84830         2.97930
H          -2.87870        -0.47180         2.39700
C           1.80640        -1.82470         1.95390
C           1.85650        -2.10350        -1.81180
C          -3.47740        -2.71010         1.48810
N           2.45080         1.87780        -1.77580
N           3.58540         1.95630        -1.84380
H           2.88800        -2.40480        -2.01330
H           1.34310        -1.96350        -2.76780
H           1.37060        -2.89480        -1.23500
H           1.25170        -2.72830         2.22460
H           2.41530        -1.52450         2.81100
H           2.47320        -2.02940         1.11370
H          -3.58990        -2.29170         0.48410
H          -4.26410        -2.32870         2.14610
H          -3.57570        -3.79710         1.42410
N          -3.09000         1.56890        -0.86850
C          -1.49100         2.14830        -2.66880
F          -2.59110         2.37640        -3.44130
F          -0.80070         1.16040        -3.29980
F          -0.74960         3.28500        -2.73880
H          -3.10350         1.40400         0.15170

1 2 1.0 10 1.0 14 1.0 12 1.0 
2 3 1.0 15 1.0 11 1.0 
3 5 1.0 4 1.0 16 1.0 
4 21 1.0 
5 6 1.0 7 1.0 17 1.0 
6 20 1.0 
7 13 1.0 8 1.0 10 1.0 
8 19 1.0 18 1.0 9 1.0 
9 22 1.0 
10 
11 23 2.0 
12 35 1.0 34 2.0 
13 
14 
15 
16 
17 
18 
19 
20 28 1.0 29 1.0 30 1.0 
21 25 1.0 26 1.0 27 1.0 
22 31 1.0 32 1.0 33 1.0 
23 24 2.0 
24 
25 
26 
27 
28 
29 
30 
31 
32 
33 
34 39 1.0 
35 36 1.0 37 1.0 38 1.0 
36 
37 
38 
39 
