#n PM6 Opt Freq

test sugar 

0  1
C          -0.91940         1.26130         0.02990
C           0.55940         0.92230        -0.23690
C           0.68040        -0.48940        -0.83590
O           2.05710        -0.77080        -1.12810
C           0.08360        -1.50040         0.17110
O           0.73430        -1.48290         1.45490
C          -1.39010        -1.11060         0.39960
C          -2.05880        -2.03650         1.43070
O          -3.48680        -1.93730         1.33690
O          -1.51530         0.25440         0.87380
N           1.18510         1.93510        -1.10300
C          -1.86980         1.53750        -1.15690
H          -1.93610        -1.19930        -0.54700
H          -0.94410         2.19160         0.61280
H           1.08090         0.93240         0.73160
H           0.11510        -0.52170        -1.77730
H           0.13120        -2.52020        -0.22820
H          -1.72370        -1.82420         2.45290
H          -1.81270        -3.07860         1.20060
C           2.01660        -2.09430         1.48220
C           2.22700        -1.75010        -2.14580
C          -4.04440        -1.05400         2.30200
N           2.41220         2.10530        -0.95530
N           3.52930         2.28040        -0.81540
H           1.77260        -2.70080        -1.85480
H           1.79690        -1.39840        -3.08840
H           3.29890        -1.90810        -2.29160
H           2.02490        -3.03570         0.92520
H           2.26340        -2.30980         2.52570
H           2.77730        -1.41020         1.10010
H          -3.83400        -1.41320         3.31400
H          -3.66440        -0.03760         2.17600
H          -5.12860        -1.03610         2.16090
N          -3.09090         1.06570        -1.13150
C          -1.38490         2.41840        -2.30340
F          -0.50920         1.76500        -3.11410
F          -0.77730         3.55300        -1.86490
F          -2.39830         2.83380        -3.11510
H          -3.23910         0.55550        -0.24470

1 2 1.0 10 1.0 14 1.0 12 1.0 
2 3 1.0 15 1.0 11 1.0 
3 5 1.0 4 1.0 16 1.0 
4 21 1.0 
5 6 1.0 7 1.0 17 1.0 
6 20 1.0 
7 13 1.0 8 1.0 10 1.0 
8 19 1.0 18 1.0 9 1.0 
9 22 1.0 
10 
11 23 2.0 
12 35 1.0 34 2.0 
13 
14 
15 
16 
17 
18 
19 
20 28 1.0 29 1.0 30 1.0 
21 25 1.0 26 1.0 27 1.0 
22 31 1.0 32 1.0 33 1.0 
23 24 2.0 
24 
25 
26 
27 
28 
29 
30 
31 
32 
33 
34 39 1.0 
35 36 1.0 37 1.0 38 1.0 
36 
37 
38 
39 
