#n PM6 Opt Freq

test sugar 

0  1
C          -1.00830         0.74460        -0.24500
C           0.32410         0.53360        -0.99770
C           0.73980        -0.95820        -0.94570
O           2.16320        -1.03050        -1.12160
C           0.26060        -1.58520         0.37920
O           0.69720        -0.82670         1.52480
C          -1.29250        -1.58400         0.34360
C          -1.91830        -1.70580         1.74540
O          -3.25020        -2.23590         1.71240
O          -1.82720        -0.43160        -0.35420
N           0.16920         0.91460        -2.42400
C          -1.82120         1.93280        -0.75790
H          -1.62120        -2.43970        -0.25900
H          -0.82890         0.94260         0.81840
H           1.09180         1.17520        -0.54380
H           0.26710        -1.49180        -1.78320
H           0.60900        -2.61680         0.50160
H          -1.33770        -2.41750         2.34210
H          -1.92550        -0.74720         2.27640
C           2.06620        -1.01510         1.86420
C           2.60890        -2.29380        -1.59990
C          -4.22280        -1.31620         1.23380
N           1.22280         1.19510        -3.03020
N           2.18010         1.45210        -3.59160
H           3.69620        -2.25320        -1.70720
H           2.36080        -3.09030        -0.89370
H           2.17180        -2.50720        -2.58000
H           2.33630        -2.07510         1.85950
H           2.71250        -0.44810         1.19110
H           2.21780        -0.62520         2.87470
H          -5.21250        -1.71830         1.46820
H          -4.12140        -0.34130         1.72000
H          -4.15340        -1.21400         0.14830
N          -2.97790         1.74190        -1.33910
C          -1.21820         3.30510        -0.50710
F           0.00330         3.45110        -1.09010
F          -1.98350         4.33750        -0.94800
F          -1.01840         3.51410         0.82480
H          -3.14120         0.72000        -1.36680

1 2 1.0 10 1.0 14 1.0 12 1.0 
2 3 1.0 15 1.0 11 1.0 
3 5 1.0 4 1.0 16 1.0 
4 21 1.0 
5 6 1.0 7 1.0 17 1.0 
6 20 1.0 
7 13 1.0 8 1.0 10 1.0 
8 19 1.0 18 1.0 9 1.0 
9 22 1.0 
10 
11 23 2.0 
12 35 1.0 34 2.0 
13 
14 
15 
16 
17 
18 
19 
20 28 1.0 29 1.0 30 1.0 
21 25 1.0 26 1.0 27 1.0 
22 31 1.0 32 1.0 33 1.0 
23 24 2.0 
24 
25 
26 
27 
28 
29 
30 
31 
32 
33 
34 39 1.0 
35 36 1.0 37 1.0 38 1.0 
36 
37 
38 
39 
